Version 4
SHEET 1 2188 1188
WIRE 608 -368 -192 -368
WIRE 288 -320 288 -336
WIRE 96 -304 -160 -304
WIRE 208 -304 176 -304
WIRE -688 -240 -944 -240
WIRE -608 -240 -688 -240
WIRE -528 -240 -608 -240
WIRE -480 -240 -528 -240
WIRE -368 -240 -480 -240
WIRE -128 -240 -368 -240
WIRE -64 -240 -128 -240
WIRE 128 -240 -64 -240
WIRE 208 -240 208 -304
WIRE 256 -240 208 -240
WIRE 288 -240 288 -256
WIRE 288 -240 256 -240
WIRE 128 -224 128 -240
WIRE 256 -224 256 -240
WIRE 384 -224 384 -240
WIRE -688 -208 -688 -240
WIRE -608 -208 -608 -240
WIRE -128 -208 -128 -240
WIRE -480 -192 -480 -240
WIRE -64 -176 -64 -240
WIRE -32 -176 -64 -176
WIRE 912 -176 544 -176
WIRE -688 -112 -688 -144
WIRE -608 -112 -608 -144
WIRE -944 -96 -944 -240
WIRE -480 -96 -480 -112
WIRE -32 -96 -480 -96
WIRE 656 -96 544 -96
WIRE 736 -96 656 -96
WIRE 1072 -96 816 -96
WIRE -480 -80 -480 -96
WIRE -128 -16 -128 -128
WIRE -32 -16 -128 -16
WIRE 656 -16 656 -32
WIRE 656 -16 544 -16
WIRE 800 -16 656 -16
WIRE 912 -16 912 -176
WIRE 912 -16 880 -16
WIRE -480 16 -480 0
WIRE -944 32 -944 -16
WIRE -368 64 -368 -240
WIRE -160 64 -160 -304
WIRE -32 64 -160 64
WIRE 560 64 544 64
WIRE -32 144 -320 144
WIRE 560 144 544 144
WIRE 608 192 608 -368
WIRE -368 224 -368 160
WIRE -192 224 -192 -368
WIRE -192 224 -368 224
WIRE -32 224 -192 224
WIRE 560 224 544 224
WIRE -368 240 -368 224
WIRE -528 256 -528 -240
WIRE -528 256 -624 256
WIRE -528 304 -528 256
WIRE -192 304 -192 288
WIRE -32 304 -192 304
WIRE 608 304 608 256
WIRE 608 304 544 304
WIRE 912 304 912 -16
WIRE 912 304 800 304
WIRE 944 304 912 304
WIRE 1040 304 1024 304
WIRE 1072 304 1072 -96
WIRE 1072 304 1040 304
WIRE 1184 304 1072 304
WIRE -368 320 -368 304
WIRE 912 320 912 304
WIRE 1072 320 1072 304
WIRE 1184 320 1184 304
WIRE -624 336 -624 256
WIRE -416 384 -480 384
WIRE -32 384 -416 384
WIRE 752 384 544 384
WIRE -416 416 -416 384
WIRE -416 416 -576 416
WIRE 912 416 912 384
WIRE 1072 416 1072 384
WIRE 1184 416 1184 400
WIRE -624 464 -624 432
WIRE -560 464 -624 464
WIRE -528 464 -528 400
WIRE -528 464 -560 464
WIRE -192 464 -192 368
WIRE -192 464 -528 464
WIRE -32 464 -192 464
WIRE 608 464 608 368
WIRE 608 464 544 464
WIRE 800 464 800 400
WIRE 800 464 608 464
WIRE 832 464 800 464
WIRE -32 544 -480 544
WIRE 752 544 544 544
WIRE 1040 608 1040 304
WIRE -160 624 -224 624
WIRE -32 624 -96 624
WIRE 560 624 544 624
WIRE 656 624 640 624
WIRE -224 704 -288 704
WIRE -96 704 -144 704
WIRE -32 704 -96 704
WIRE 1040 704 1040 688
WIRE 1040 704 544 704
WIRE -288 720 -288 704
WIRE -96 720 -96 704
WIRE 1040 720 1040 704
WIRE 64 768 64 752
WIRE 448 768 448 752
WIRE -288 800 -288 784
WIRE -96 800 -96 784
WIRE 192 800 192 752
WIRE 224 800 192 800
WIRE 320 800 320 752
WIRE 320 800 304 800
WIRE 352 800 320 800
WIRE 1040 816 1040 800
WIRE -528 848 -528 560
WIRE 192 848 192 800
WIRE 192 848 -528 848
WIRE 800 848 800 560
WIRE 800 848 192 848
WIRE -560 896 -560 464
WIRE 432 896 -560 896
WIRE 832 896 832 464
WIRE 832 896 512 896
FLAG 912 416 0
FLAG 1040 816 0
FLAG 352 800 0
FLAG 448 768 0
FLAG -224 624 0
FLAG -288 800 0
FLAG 64 768 0
FLAG 1184 416 0
FLAG 656 624 0
FLAG 1072 416 0
FLAG -480 16 0
FLAG -368 320 0
FLAG 560 64 0
FLAG -96 800 0
FLAG 1184 304 OUT
FLAG -688 -112 0
FLAG -608 -112 0
FLAG -944 32 0
FLAG 288 -336 0
SYMBOL nmos -480 304 M0
WINDOW 3 43 108 Right 2
WINDOW 0 34 -7 Right 2
SYMATTR Value BSC110N06NS3
SYMATTR InstName FET-A
SYMBOL diode -208 224 R0
WINDOW 0 36 14 Left 2
WINDOW 3 36 54 Left 2
SYMATTR InstName D_A
SYMATTR Value RF04UA2D
SYMBOL cap 272 -256 M180
WINDOW 0 24 56 Left 2
WINDOW 3 24 8 Left 2
SYMATTR InstName C_V5
SYMATTR Value 2.2µ
SYMATTR SpiceLine V=6.3
SYMBOL nmos 752 464 R0
WINDOW 3 36 101 Right 2
WINDOW 0 0 30 Right 2
SYMATTR Value BSC057N08NS3
SYMATTR InstName FET_C
SYMBOL cap 896 320 R0
SYMATTR InstName C2
SYMATTR Value 33µF
SYMATTR SpiceLine V=35
SYMBOL res 1024 704 R0
SYMATTR InstName R_A
SYMATTR Value 12.1k
SYMBOL res 1024 592 R0
SYMATTR InstName R_B
SYMATTR Value 230k
SYMBOL res 208 816 R270
WINDOW 0 32 56 VTop 2
WINDOW 3 0 56 VBottom 2
SYMATTR InstName R3
SYMATTR Value 4m
SYMBOL cap -208 304 R0
WINDOW 0 33 18 Left 2
WINDOW 3 29 58 Left 2
SYMATTR InstName C_A
SYMATTR Value .22µ
SYMATTR SpiceLine V=10
SYMBOL cap 592 304 R0
WINDOW 0 33 18 Left 2
WINDOW 3 29 58 Left 2
SYMATTR InstName C_B
SYMATTR Value .22µ
SYMATTR SpiceLine V=10
SYMBOL cap -96 608 R90
WINDOW 0 0 32 VBottom 2
WINDOW 3 32 32 VTop 2
SYMATTR InstName C_SS
SYMATTR Value 4.7nF
SYMATTR SpiceLine V=50
SYMBOL cap -304 720 R0
SYMATTR InstName C6
SYMATTR Value 10nF
SYMATTR SpiceLine V=50
SYMBOL res -128 688 R90
WINDOW 0 0 56 VBottom 2
WINDOW 3 32 56 VTop 2
SYMATTR InstName R4
SYMATTR Value 10K
SYMBOL nmos -480 464 M0
WINDOW 3 38 107 Right 2
WINDOW 0 2 32 Right 2
SYMATTR Value BSC110N06NS3
SYMATTR InstName FET-B
SYMBOL ind 416 912 R270
WINDOW 0 32 56 VTop 2
WINDOW 3 5 56 VBottom 2
SYMATTR InstName L1
SYMATTR Value 33µH
SYMATTR SpiceLine Rpar=1K
SYMBOL res 928 320 R270
WINDOW 0 32 56 VTop 2
WINDOW 3 0 56 VBottom 2
SYMATTR InstName R_Sense2
SYMATTR Value 4m
SYMBOL res 544 640 R270
WINDOW 0 32 56 VTop 2
WINDOW 3 0 56 VBottom 2
SYMATTR InstName R_FREQ
SYMATTR Value 57.9k
SYMBOL cap 1056 320 R0
SYMATTR InstName C_FF
SYMATTR Value 220µF
SYMATTR SpiceLine V=35
SYMBOL res 832 -112 R90
WINDOW 0 0 56 VBottom 2
WINDOW 3 32 56 VTop 2
SYMATTR InstName R_F
SYMATTR Value 100
SYMBOL res 896 -32 R90
WINDOW 0 0 56 VBottom 2
WINDOW 3 32 56 VTop 2
SYMATTR InstName R_F2
SYMATTR Value 100
SYMBOL cap 640 -96 R0
WINDOW 0 37 20 Left 2
WINDOW 3 33 50 Left 2
SYMATTR InstName C_F
SYMATTR Value 3.3µF
SYMATTR SpiceLine V=6.3
SYMBOL res 1168 304 R0
SYMATTR InstName Rload
SYMATTR Value 2
SYMBOL PowerProducts\\LTC3779 256 256 R0
SYMATTR InstName U1
SYMBOL res -144 -224 R0
SYMATTR InstName R9
SYMATTR Value 10K
SYMBOL res -496 -96 R0
SYMATTR InstName R11
SYMATTR Value 1.21K
SYMBOL res -496 -208 R0
SYMATTR InstName R12
SYMATTR Value 133K
SYMBOL nmos -320 64 M0
WINDOW 0 33 -3 Right 2
WINDOW 3 34 102 Right 2
SYMATTR InstName M1
SYMATTR Value IPP024N06N3
SYMBOL cap -384 240 R0
SYMATTR InstName C_DRVCC
SYMATTR Value 10µ
SYMBOL cap -112 720 R0
SYMATTR InstName C10
SYMATTR Value 100p
SYMATTR SpiceLine V=50
SYMBOL diode 592 192 R0
SYMATTR InstName D_B
SYMATTR Value RF04UA2D
SYMBOL nmos -576 336 M0
WINDOW 3 43 108 Right 2
WINDOW 0 34 -7 Right 2
SYMATTR Value BSC110N06NS3
SYMATTR InstName FET_A2
SYMBOL nmos 752 304 R0
WINDOW 3 36 101 Right 2
WINDOW 0 0 30 Right 2
SYMATTR Value BSC057N08NS3
SYMATTR InstName FET_D
SYMBOL cap -704 -208 R0
SYMATTR InstName C1
SYMATTR Value 4.7µF
SYMATTR SpiceLine V=100
SYMBOL cap -624 -208 R0
SYMATTR InstName C3
SYMATTR Value .22µF
SYMATTR SpiceLine V=100
SYMBOL bv -944 -112 R0
SYMATTR InstName B1
SYMATTR Value V=(WHITE(5e6*time)*7.5)+37.5
SYMBOL res 192 -320 R90
WINDOW 0 0 56 VBottom 2
WINDOW 3 32 56 VTop 2
SYMATTR InstName R1
SYMATTR Value 100k
TEXT 880 880 Left 2 !.tran 10m startup
